LTspice 24.1.9 for Windows
Circuit: C:\Users\Administrator\OneDrive\Desktop\MITMANIPAL\MRM\LTspice\RL.net
Start Time: Sun Oct  5 15:10:25 2025
solver = Normal
Maximum thread count: 4
tnom = 27
temp = 27
method = trap
.OP point found by inspection.
Total elapsed time: 0.176 seconds.

Files loaded:
C:\Users\Administrator\OneDrive\Desktop\MITMANIPAL\MRM\LTspice\RL.net

